*ngspice netlist  by niel mishra* 
v1 1 0 dc 5v
r1 1 0 10

.dc v1 1e-00 11e-00 1e-00

.control 
run 
plot allv 
.endc 
.end 
